Version 4
SHEET 1 880 680
WIRE 224 -16 -32 -16
WIRE 224 48 224 -16
WIRE 224 48 112 48
WIRE 320 48 224 48
WIRE -32 128 -32 -16
WIRE 112 144 112 128
WIRE 400 144 112 144
WIRE 320 192 320 128
WIRE 400 192 320 192
WIRE 112 224 112 144
WIRE 320 224 320 192
WIRE 224 304 112 304
WIRE 320 304 224 304
WIRE -32 336 -32 208
WIRE 224 336 224 304
FLAG -32 336 0
FLAG 224 336 0
FLAG 400 144 Out1
IOPIN 400 144 Out
FLAG 400 192 Out2
IOPIN 400 192 Out
SYMBOL res 304 32 R0
WINDOW 3 -476 230 Left 2
SYMATTR InstName Gauge3
SYMBOL res 96 208 R0
WINDOW 3 -321 -40 Left 2
SYMATTR InstName Gauge4
SYMBOL res 304 208 R0
WINDOW 3 -517 19 Left 2
SYMATTR InstName Gauge2
SYMBOL voltage -32 112 R0
WINDOW 3 -183 83 Left 2
SYMATTR InstName Supply
SYMBOL res 96 32 R0
WINDOW 3 -319 88 Left 2
SYMATTR InstName Gauge1
